[General]
sim-time-limit = 300s
repeat = 5
seed-set = ${repetition}

output-vector-file = results/${configname}-${runnumber}.vec
output-scalar-file  = results/${configname}-${runnumber}.sca
**.vector-recording = true
**.scalar-recording = true

**.mobility.initFromDisplayString = false

*.configurator.addStaticRoutes = false
*.configurator.addSubnetRoutes = false
*.configurator.addDefaultRoutes = false
**.ip.limitedBroadcast = true

**.radioMedium.typename                         = "Ieee80211ScalarRadioMedium"
**.radioMedium.pathLoss.typename                = "FreeSpacePathLoss"
**.radioMedium.backgroundNoise.typename         = "IsotropicScalarBackgroundNoise"
**.radioMedium.backgroundNoise.power            = -100dBm

**.wlan[*].radio.typename                       = "Ieee80211ScalarRadio"
**.wlan[*].radio.carrierFrequency               = 2.4GHz
**.wlan[*].radio.bandwidth                      = 20MHz
**.wlan[*].radio.receiver.sensitivity           = -85dBm
**.wlan[*].radio.receiver.snirThreshold         = 4dB

# Drones: rádio embarcado leve — padrão FANET (artigos omnet-manual/scitepress)
# 20 mW @ 2.4 GHz / FreeSpace → alcance teórico ~800 m
**.drone[*].wlan[*].radio.transmitter.power     = 20mW
**.drone[*].wlan[*].radio.transmitter.datarate  = 6Mbps

# Equipes terrestres: rádio portátil de campo (2,5× mais potente que drone)
# 50 mW → alcance ~1260 m  (rácio de raio ≈ 1,6×, menos discrepante)
**.team[*].wlan[*].radio.transmitter.power      = 50mW
**.team[*].wlan[*].radio.transmitter.datarate   = 6Mbps

**.wlan[*].mac.typename                         = "Ieee80211Mac"
**.wlan[*].mgmt.typename                        = "Ieee80211MgmtAdhoc"
**.wlan[*].agent.typename                       = ""
# Buffer MAC: 50 pacotes — previne overflow sem jitter excessivo [SCI-2019]
**.wlan[*].mac.queue.packetCapacity             = 50

# ═══════════════════════════════════════════════════════════════════════════
# BasicTest — cenário base calibrado: 15 drones + 5 embarcações, área SAR 5 km × 5 km
# Drones: altitude constante 100 m, Gauss-Markov 8–15 m/s
# Embarcações: RandomWaypoint 1.5–3.0 m/s, Z=1.5 m (antena)
# Store-forward: maxRetries=5, janela 50 s — sem obstáculos, baseline pré-BA.
#
# Fluxo 1: equipe  → TeamUpdate bcast 5001 → drone (tabela local + DroneStatus ACK)
# Fluxo 2: drone   → VictimAlert uni 5000  → equipe (direto ou via relay FANET)
#          relay   → VictimAlert bcast 5004 → drones vizinhos (c/ deduplicação)
#          equipe  → VictimAck uni 5002     → drone origem (cancela store-forward)
# ═══════════════════════════════════════════════════════════════════════════
[Config BasicTest]
network     = echosar.simulations.BasicNetwork
description = "15 drones, 5 equipes: cenário base calibrado — PDR operacional parcial sem obstáculos"
*.numDrones = 15
*.numTeams  = 5

# ── Drones: mobilidade aérea suavizada ──────────────────────────────────────
**.drone[*].mobility.typename             = "GaussMarkovMobility"
**.drone[*].mobility.alpha                = 0.75   # inércia moderada (0=aleatorio, 1=linear)
# Velocidade SAR urbano: 8–15 m/s equilibra cobertura e estabilidade de link [SCI-2019]
**.drone[*].mobility.speed                = uniform(8mps, 15mps)
**.drone[*].mobility.speedStdDev          = 0mps
**.drone[*].mobility.angleStdDev          = 30deg
**.drone[*].mobility.margin               = 50m
**.drone[*].mobility.constraintAreaMinX   = 0m
**.drone[*].mobility.constraintAreaMaxX   = 5000m
**.drone[*].mobility.constraintAreaMinY   = 0m
**.drone[*].mobility.constraintAreaMaxY   = 5000m
# Altitude operacional constante: 100 m [garg2022directed]
**.drone[*].mobility.constraintAreaMinZ   = 100m
**.drone[*].mobility.constraintAreaMaxZ   = 100m

# ── Aplicação dos drones ─────────────────────────────────────────────────────
**.drone[*].app[0].victimInterval         = 40s   # detecção média SAR — cenário moderado
**.drone[*].app[0].teamTimeout            = 30s   # remoção de equipe inativa [SCI-2019]
**.drone[*].app[0].retryInterval          = 10s   # store-forward: intervalo entre retries
**.drone[*].app[0].maxRetries             = 5     # store-forward: tentativas máximas

# ── Embarcações de resgate: patrulha em área inundada ────────────────────────
# RandomWaypointMobility: desloca-se entre waypoints aleatórios na área de busca
**.team[*].mobility.typename              = "RandomWaypointMobility"
# Velocidade: 1.5–3.0 m/s (~5.4–10.8 km/h) — embarcação de resgate em área alagada
**.team[*].mobility.speed                 = uniform(1.5mps, 3.0mps)
**.team[*].mobility.waitTime              = uniform(5s, 20s)
**.team[*].mobility.constraintAreaMinX    = 0m
**.team[*].mobility.constraintAreaMaxX    = 5000m
**.team[*].mobility.constraintAreaMinY    = 0m
**.team[*].mobility.constraintAreaMaxY    = 5000m
# Embarcação: Z constante em 1.5 m (altura da antena montada no convés)
**.team[*].mobility.initialZ              = 1.5m
**.team[*].mobility.constraintAreaMinZ    = 1.5m
**.team[*].mobility.constraintAreaMaxZ    = 1.5m
# Posições iniciais: 4 cantos + centro (cobertura mais uniforme com 5 equipes)
**.team[0].mobility.initialX              = 600m    # SW
**.team[0].mobility.initialY              = 4400m
**.team[1].mobility.initialX              = 4400m   # NE
**.team[1].mobility.initialY              = 600m
**.team[2].mobility.initialX              = 4400m   # SE
**.team[2].mobility.initialY              = 4400m
**.team[3].mobility.initialX              = 600m    # NW
**.team[3].mobility.initialY              = 600m
**.team[4].mobility.initialX              = 2500m   # Centro
**.team[4].mobility.initialY              = 2500m

# ── Visualização ─────────────────────────────────────────────────────────────
*.visualizer.mediumVisualizer.displayCommunicationRanges  = true
*.visualizer.mediumVisualizer.communicationRangeLineColor = "blue"
*.visualizer.mediumVisualizer.communicationRangeLineStyle = "dashed"
*.visualizer.mediumVisualizer.communicationRangeLineWidth = 1

# ── Aplicação das equipes ────────────────────────────────────────────────────
**.team[0].app[0].myTeamId                = "team0"
**.team[1].app[0].myTeamId                = "team1"
**.team[2].app[0].myTeamId                = "team2"
**.team[3].app[0].myTeamId                = "team3"
**.team[4].app[0].myTeamId                = "team4"
**.team[*].app[0].sendInterval            = 5s    # beacon periódico para os drones
# teamSpeed: ponto médio da faixa de embarcação (1.5–3.0 m/s → 2.25 m/s)
# Usado para estimar busyDuration no timer de atendimento
**.team[*].app[0].teamSpeed               = 2.25mps
# serviceTime: tempo mínimo de triagem e estabilização no local da vítima
**.team[*].app[0].serviceTime             = 120s

# ═══════════════════════════════════════════════════════════════════════════
# BasicTest_Obstacles — cenário com 3 edifícios de concreto (obstáculos urbanos).
#
# Usa DielectricObstacleLoss: atenua o sinal com base no comprimento do caminho
# dentro do material e nas propriedades dielétricas do concreto (ε_r=4,5,
# σ=0,01 S/m). A atenuação é proporcional à espessura do material atravessado
# — mais realista que o modelo ideal (bloqueio binário).
#
# Os 3 edifícios (obstacles.xml) têm 80 m de altura e estão posicionados para
# interceptar caminhos drone-embarcação que cruzam as regiões NW-centro,
# central e SE-centro da área de 5 km × 5 km.
#
# physicalEnvironmentModule: o RadioMedium procura automaticamente um submodule
# chamado "physicalEnvironment" no mesmo network — corresponde ao módulo adicionado
# ao BasicNetwork.ned.
# ═══════════════════════════════════════════════════════════════════════════
[Config BasicTest_Obstacles]
extends     = BasicTest
description = "BasicTest com 3 edifícios urbanos de concreto (120 m, DielectricObstacleLoss)"

# ── Limites do espaço físico (cobrem toda a área + overhead dos edifícios) ─
*.physicalEnvironment.spaceMinX = 0m
*.physicalEnvironment.spaceMinY = 0m
*.physicalEnvironment.spaceMinZ = 0m
*.physicalEnvironment.spaceMaxX = 5000m
*.physicalEnvironment.spaceMaxY = 5000m
*.physicalEnvironment.spaceMaxZ = 200m

# ── XML com a geometria dos 3 edifícios (120 m de altura > 100 m dos drones)─
# Altura > altitude dos drones: qualquer cruzamento horizontal do footprint
# intersecta o volume do edifício e ativa a atenuação dielétrica.
*.physicalEnvironment.config = xmldoc("obstacles.xml")

# ── Modelo de perda por obstáculo: dielétrico (atenuação parcial realista) ─
*.radioMedium.obstacleLoss.typename = "DielectricObstacleLoss"

# ── Visualização dos objetos físicos e das perdas por obstáculo (Qtenv) ───
*.visualizer.physicalEnvironmentVisualizer.displayObjects = true
*.visualizer.obstacleLossVisualizer.displayObstacleLoss  = true

# ═══════════════════════════════════════════════════════════════════════════
# BasicTest_TeamCal — TESTADO, NÃO ADOTADO (ver docs/scenario_reference.md §12.1).
# teamSpeed mais conservador (uniform 0.4-0.7) e serviceTime mais realista
# (300s) para triagem em inundação. PDR caiu 27,0%→18,4% em 5 seeds, mas a
# queda é errática por seed (não uniforme) — consistente com viés de RNG
# introduzido por trocar teamSpeed de escalar fixo p/ distribuição (consome
# sorteio extra do stream global, descorrelaciona toda a sequência de
# eventos do run em relação ao baseline de mesma seed), não com efeito
# causal real do parâmetro. Mantido aqui só como registro do teste.
# ═══════════════════════════════════════════════════════════════════════════
[Config BasicTest_TeamCal]
extends     = BasicTest
description = "[NÃO ADOTADO] BasicTest com teamSpeed=uniform(0.4,0.7) e serviceTime=300s"
**.team[*].app[0].teamSpeed    = uniform(0.4mps, 0.7mps)
**.team[*].app[0].serviceTime  = 300s

# ═══════════════════════════════════════════════════════════════════════════
# BasicTest_600s — TESTADO, NÃO ADOTADO COMO PRINCIPAL (ver §12.1). Dobra o
# tempo de simulação; reduz o desvio entre seeds (±3,7 vs ±7,3) mas não
# melhora o PDR (24,3% vs 27,0%) — sistema é limitado por capacidade, não
# por tempo de exposição. Pode valer a pena revisitar se precisarmos de
# menor variância entre seeds, mas dobra o custo computacional por seed.
# ═══════════════════════════════════════════════════════════════════════════
[Config BasicTest_600s]
extends         = BasicTest
description     = "[NÃO ADOTADO COMO PRINCIPAL] BasicTest com sim-time-limit=600s"
sim-time-limit  = 600s
