[General]
sim-time-limit = 300s
repeat = 1
seed-set = ${repetition}

output-vector-file = results/${configname}-${runnumber}.vec
output-scalar-file  = results/${configname}-${runnumber}.sca
**.vector-recording = true
**.scalar-recording = true

**.mobility.initFromDisplayString = false

*.configurator.addStaticRoutes = false
*.configurator.addSubnetRoutes = false
*.configurator.addDefaultRoutes = false
**.ip.limitedBroadcast = true

**.radioMedium.typename                         = "Ieee80211ScalarRadioMedium"
**.radioMedium.pathLoss.typename                = "FreeSpacePathLoss"
**.radioMedium.backgroundNoise.typename         = "IsotropicScalarBackgroundNoise"
**.radioMedium.backgroundNoise.power            = -100dBm

**.wlan[*].radio.typename                       = "Ieee80211ScalarRadio"
**.wlan[*].radio.carrierFrequency               = 2.4GHz
**.wlan[*].radio.bandwidth                      = 20MHz
**.wlan[*].radio.receiver.sensitivity           = -85dBm
**.wlan[*].radio.receiver.snirThreshold         = 4dB

# Drones: rádio embarcado leve — padrão FANET (artigos omnet-manual/scitepress)
# 20 mW @ 2.4 GHz / FreeSpace → alcance teórico ~800 m
**.drone[*].wlan[*].radio.transmitter.power     = 20mW
**.drone[*].wlan[*].radio.transmitter.datarate  = 6Mbps

# Equipes terrestres: rádio portátil de campo (2,5× mais potente que drone)
# 50 mW → alcance ~1260 m  (rácio de raio ≈ 1,6×, menos discrepante)
**.team[*].wlan[*].radio.transmitter.power      = 50mW
**.team[*].wlan[*].radio.transmitter.datarate   = 6Mbps

**.wlan[*].mac.typename                         = "Ieee80211Mac"
**.wlan[*].mgmt.typename                        = "Ieee80211MgmtAdhoc"
**.wlan[*].agent.typename                       = ""
# Buffer MAC: 50 pacotes — previne overflow sem jitter excessivo [SCI-2019]
**.wlan[*].mac.queue.packetCapacity             = 50

# ═══════════════════════════════════════════════════════════════════════════
# BasicTest — cenário de baixa densidade: 10 drones + 3 equipes em área urbana alagada
# A área 5 km × 5 km favorece contatos intermitentes, compatíveis com disseminação
# oportunística e store-and-forward em FANET.
#
# Fluxo 1: equipe  → TeamUpdate bcast 5001 → drone (tabela local + DroneStatus ACK)
# Fluxo 2: drone   → VictimAlert uni 5000  → equipe (direto ou via relay FANET)
#          relay   → VictimAlert bcast 5004 → drones vizinhos (c/ deduplicação)
#          equipe  → VictimAck uni 5002     → drone origem (cancela store-forward)
# ═══════════════════════════════════════════════════════════════════════════
[Config BasicTest]
network     = echosar.simulations.BasicNetwork
description = "10 drones, 3 equipes: busca e salvamento em inundação urbana"
*.numDrones = 10
*.numTeams  = 3

# ── Drones: mobilidade aérea suavizada ──────────────────────────────────────
**.drone[*].mobility.typename             = "GaussMarkovMobility"
**.drone[*].mobility.alpha                = 0.75   # inércia moderada (0=aleatorio, 1=linear)
# Velocidade SAR urbano: 8–15 m/s equilibra cobertura e estabilidade de link [SCI-2019]
**.drone[*].mobility.speed                = uniform(8mps, 15mps)
**.drone[*].mobility.speedStdDev          = 0mps
**.drone[*].mobility.angleStdDev          = 30deg
**.drone[*].mobility.margin               = 50m
**.drone[*].mobility.constraintAreaMinX   = 0m
**.drone[*].mobility.constraintAreaMaxX   = 5000m
**.drone[*].mobility.constraintAreaMinY   = 0m
**.drone[*].mobility.constraintAreaMaxY   = 5000m
# Altitude operacional: faixa 100–150 m, ótimo ~120 m [SCI-2019]
**.drone[*].mobility.constraintAreaMinZ   = 100m
**.drone[*].mobility.constraintAreaMaxZ   = 150m

# ── Aplicação dos drones ─────────────────────────────────────────────────────
**.drone[*].app[0].victimInterval         = 20s   # detecção média SAR
**.drone[*].app[0].teamTimeout            = 30s   # remoção de equipe inativa [SCI-2019]
**.drone[*].app[0].retryInterval          = 10s   # store-forward: intervalo entre retries
**.drone[*].app[0].maxRetries             = 5     # store-forward: tentativas máximas

# ── Equipes: patrulha terrestre em cenário de inundação ──────────────────────
# RandomWaypointMobility: desloca-se entre waypoints aleatórios na área de busca
**.team[*].mobility.typename              = "RandomWaypointMobility"
# Velocidade reduzida: 0.45 m/s (área severamente alagada) – 1.4 m/s (área seca)
# Referência: simuladores de pedestres em inundação (arXiv:1908.05232)
**.team[*].mobility.speed                 = uniform(0.45mps, 1.4mps)
**.team[*].mobility.waitTime              = uniform(5s, 20s)
**.team[*].mobility.constraintAreaMinX    = 0m
**.team[*].mobility.constraintAreaMaxX    = 5000m
**.team[*].mobility.constraintAreaMinY    = 0m
**.team[*].mobility.constraintAreaMaxY    = 5000m
# Equipes fixas em solo: Z constante em 1.5 m (altura da antena do terminal)
**.team[*].mobility.initialZ              = 1.5m
**.team[*].mobility.constraintAreaMinZ    = 1.5m
**.team[*].mobility.constraintAreaMaxZ    = 1.5m
# Posições iniciais: vértices da área (triangulação SW, NE, SE)
**.team[0].mobility.initialX              = 600m
**.team[0].mobility.initialY              = 4400m
**.team[1].mobility.initialX              = 4400m
**.team[1].mobility.initialY              = 600m
**.team[2].mobility.initialX              = 4400m
**.team[2].mobility.initialY              = 4400m

# ── Visualização ─────────────────────────────────────────────────────────────
*.visualizer.mediumVisualizer.displayCommunicationRanges  = true
*.visualizer.mediumVisualizer.communicationRangeLineColor = "blue"
*.visualizer.mediumVisualizer.communicationRangeLineStyle = "dashed"
*.visualizer.mediumVisualizer.communicationRangeLineWidth = 1

# ── Aplicação das equipes ────────────────────────────────────────────────────
**.team[0].app[0].myTeamId                = "team0"
**.team[1].app[0].myTeamId                = "team1"
**.team[2].app[0].myTeamId                = "team2"
**.team[*].app[0].sendInterval            = 5s    # beacon periódico para os drones
# teamSpeed: média da faixa em área alagada (0.45–1.4 m/s ≈ 0.9 m/s)
# Usado para estimar busyDuration no timer de atendimento
**.team[*].app[0].teamSpeed               = 0.9mps
# serviceTime: tempo mínimo de triagem e estabilização no local da vítima
**.team[*].app[0].serviceTime             = 120s
